/*--------------------------------*- C++ -*----------------------------------*\
| =========                 |                                                 |
| \\      /  F ield         | OpenFOAM: The Open Source CFD Toolbox           |
|  \\    /   O peration     | Version:  v2312                                 |
|   \\  /    A nd           | Website:  www.openfoam.com                      |
|    \\/     M anipulation  |                                                 |
\*---------------------------------------------------------------------------*/
FoamFile
{
    version     2.0;
    format      ascii;
    class       volScalarField;
    object      omega;
}
// * * * * * * * * * * * * * * * * * * * * * * * * * * * * * * * * * * * * * //

dimensions      [0 0 -1 0 0 0 0];

internalField   uniform 1;

boundaryField
{
    leftWall
    {
        type            omegaWallFunction;
        value           uniform 100;
    }

    rightWall
    {
        type            omegaWallFunction;
        value           uniform 100;
    }

    lowerWall
    {
        type            omegaWallFunction;
        value           uniform 100;
    }

    atmosphere
    {
        type            inletOutlet;
       	inletValue      uniform 1;
        value           uniform 1;
    }

    defaultFaces
    {
        type            empty;
    }
}


// ************************************************************************* //
