/*--------------------------------*- C++ -*----------------------------------*\
| =========                 |                                                 |
| \\      /  F ield         | OpenFOAM: The Open Source CFD Toolbox           |
|  \\    /   O peration     | Version:  v2312                                 |
|   \\  /    A nd           | Website:  www.openfoam.com                      |
|    \\/     M anipulation  |                                                 |
\*---------------------------------------------------------------------------*/
FoamFile
{
    version     2.0;
    format      ascii;
    class       dictionary;
    object      controlDict;
}
// * * * * * * * * * * * * * * * * * * * * * * * * * * * * * * * * * * * * * //

application     multiphaseInterFoam;

startFrom       startTime;

startTime       0;

stopAt          endTime;

endTime         10;

deltaT          0.01;

writeControl    adjustable;

writeInterval   0.05;

purgeWrite      0;

writeFormat     ascii;

writePrecision  6;

writeCompression on;

timeFormat      general;

timePrecision   6;

runTimeModifiable yes;

adjustTimeStep  yes;

maxCo           1;

maxAlphaCo      1;

maxDeltaT       1;

functions
{
    yPlus1
{
    // Mandatory entries (unmodifiable)
    type            yPlus;
    libs            (fieldFunctionObjects);

    // Optional (inherited) entries
    writePrecision  8;
    writeToFile     true;
    useUserTime     true;
    region          region0;
    enabled         true;
    log             true;
    timeStart       0;
    timeEnd         1000;
    executeControl  writeTime;
    executeInterval 1;
    writeControl    writeTime;
    writeInterval   1;
}
	residuals
    {
        type            solverInfo;
        libs            ("libutilityFunctionObjects.so");
        writeResidualFields yes;
        writeControl    writeTime;
        fields          (".*");
    }
    // during exec : foamMonitor -l postProcessing/residuals/0/solverInfo.dat
    
}


// ************************************************************************* //
